Version 4
SHEET 1 880 680
WIRE 256 -1088 16 -1088
WIRE 320 -1072 240 -1072
WIRE 176 -1056 32 -1056
WIRE 256 -1056 256 -1088
WIRE 304 -1056 256 -1056
WIRE 0 -1040 -32 -1040
WIRE 16 -1040 16 -1088
WIRE 32 -1040 32 -1056
WIRE 160 -1040 48 -1040
WIRE 176 -1040 176 -1056
WIRE 240 -1040 240 -1072
WIRE 256 -1040 256 -1056
WIRE 416 -1040 272 -1040
WIRE 272 -880 224 -880
WIRE 208 -864 208 -880
WIRE 240 -864 208 -864
WIRE 192 -848 192 -880
WIRE 224 -848 192 -848
WIRE 304 -832 304 -1056
WIRE 304 -832 192 -832
WIRE 352 -832 304 -832
WIRE 320 -816 320 -1072
WIRE 320 -816 208 -816
WIRE 336 -816 320 -816
WIRE 160 -800 160 -880
WIRE 176 -800 176 -880
WIRE 192 -800 192 -832
WIRE 208 -800 208 -816
WIRE 224 -800 224 -848
WIRE 240 -800 240 -864
WIRE 272 -800 272 -880
WIRE 304 -800 272 -800
WIRE 336 -800 336 -816
WIRE 352 -800 352 -832
WIRE 128 -784 16 -784
WIRE 112 -768 16 -768
WIRE 96 -752 16 -752
WIRE 80 -736 16 -736
WIRE 32 -720 16 -720
WIRE 128 -688 128 -784
WIRE 160 -688 128 -688
WIRE 112 -672 112 -768
WIRE 176 -672 176 -688
WIRE 176 -672 112 -672
WIRE 16 -656 16 -704
WIRE 16 -656 0 -656
WIRE 96 -656 96 -752
WIRE 224 -656 224 -688
WIRE 224 -656 96 -656
WIRE 80 -640 80 -736
WIRE 240 -640 240 -688
WIRE 240 -640 80 -640
WIRE 192 -624 192 -688
WIRE 352 -624 352 -688
WIRE 352 -624 192 -624
WIRE 416 -624 416 -1040
WIRE 416 -624 352 -624
WIRE 32 -576 32 -720
FLAG -32 -1040 0
FLAG 0 -656 0
FLAG 32 -496 0
SYMBOL Arduino\ Uno 224 -960 R90
SYMATTR InstName X1
SYMBOL Logic\ Level\ Shifter 192 -752 M90
SYMATTR InstName X2
SYMBOL LoRa -32 -752 R90
SYMATTR InstName X3
SYMBOL display 32 -992 R0
SYMATTR InstName X4
SYMBOL Logic\ Level\ Shifter 352 -752 R90
SYMATTR InstName X6
SYMBOL voltage 32 -592 R0
SYMATTR InstName V1
SYMATTR Value 9.6V
